[TITLE]
;;Project Title/Notes
wlkxc SWMM

[OPTIONS]
;;Option             Value
FLOW_UNITS           CMS
INFILTRATION         HORTON
FLOW_ROUTING         DYNWAVE
LINK_OFFSETS         DEPTH
MIN_SLOPE            0
ALLOW_PONDING        NO
SKIP_STEADY_STATE    NO

START_DATE           07/14/2016
START_TIME           19:05:00
REPORT_START_DATE    07/14/2016
REPORT_START_TIME    19:05:00
END_DATE             07/15/2016
END_TIME             12:00:00
SWEEP_START          01/01
SWEEP_END            12/31
DRY_DAYS             0
REPORT_STEP          00:05:00
WET_STEP             00:05:00
DRY_STEP             01:00:00
ROUTING_STEP         0:00:20 

INERTIAL_DAMPING     PARTIAL
NORMAL_FLOW_LIMITED  BOTH
FORCE_MAIN_EQUATION  H-W
VARIABLE_STEP        0.75
LENGTHENING_STEP     0
MIN_SURFAREA         1.14
MAX_TRIALS           8
HEAD_TOLERANCE       0.0015
SYS_FLOW_TOL         5
LAT_FLOW_TOL         5
MINIMUM_STEP         0.5
THREADS              1

[EVAPORATION]
;;Data Source    Parameters
;;-------------- ----------------
CONSTANT         0.2
DRY_ONLY         NO

[RAINGAGES]
;;Name           Format    Interval SCF      Source    
;;-------------- --------- ------ ------ ----------
RG1              VOLUME    0:05     1        TIMESERIES RG1             
RG2              VOLUME    0:05     1        TIMESERIES RG2             
RG3              VOLUME    0:05     1        TIMESERIES RG3             

[SUBCATCHMENTS]
;;Name           Rain Gage        Outlet           Area     %Imperv  Width    %Slope   CurbLen  SnowPack        
;;-------------- ---------------- ---------------- -------- -------- -------- -------- -------- ----------------
1                RG2              YN12             26.8205  11.30193906 129.4712394 0.734986603 0                        
2                RG2              A38              3.3061   3.370786517 45.456889 0.894500017 0                        
3                RG2              YN10-7           5.3641   1.523545706 57.90129849 0.930334806 0                        
4                RG2              YI9              14.4949  27.93439262 95.1805783 1.039884567 0                        
5                RG2              B33              12.8456  4.569115095 89.60189633 0.599984527 0                        
6                RG2              YM16             2.1546   61.72413793 36.695998 1.56768322 0                        
7                RG2              B30              14.0120  27.73064687 93.58161777 1.130987287 0                        
8                RG2              YW10             3.9896   12.47672253 49.93520617 0.39345485 0                        
9                RG2              YM10             14.1606  26.02308499 94.07650022 0.96486038 0                        
10               RG2              A21              13.4548  29.210381 91.70202576 0.863775134 0                        
11               RG2              B20              11.7163  31.95941661 85.57276227 0.981304944 0                        
12               RG2              YL5              8.3656   40.31971581 72.30842463 1.290960908 0                        
13               RG2              YV13             4.8217   12.78890601 54.89617092 0.450382829 0                        
14               RG2              YD12             18.3806  19.92724333 107.1814313 1.098547935 0                        
15               RG2              A11              14.2721  18.79229568 94.44596034 0.716567397 0                        
16               RG2              B11              18.8486  37.5246354 108.537531 1.539371014 0                        
17               RG2              YK10             12.7416  27.75510204 89.23839829 1.52045989 0                        
18               RG2              YH11             8.1130   37.17948718 71.20836656 1.689939737 0                        
19               RG2              YH11             15.7060  3.169347209 99.07685127 0.587306738 0                        
20               RG2              Y6               4.9183   15.55891239 55.44325245 0.279590935 0                        
21               RG2              Y16              11.3894  11.54598826 84.3705309 0.232421651 0                        
22               RG2              Y29              18.2691  9.068727125 106.8560138 0.228548512 0                        
23               RG2              Y37              13.0685  8.470722001 90.37589771 0.274128854 0                        
24               RG2              Y46              16.0254  8.020398702 100.0794194 0.163700476 0                        
25               RG2              Y46              4.6360   0.961538462 53.82846548 0.133739531 0                        
26               RG2              YH27             10.8396  38.10829335 82.30900476 1.193367839 0                        
27               RG2              YH27             17.2290  3.62225097 103.7695847 0.247680783 0                        
28               RG2              A32              17.0878  25.43478261 103.3436086 0.948457718 0                        
29               RG2              YI15             7.1546   54.82866044 66.87023479 1.386791706 0                        
30               RG2              A38              21.7090  4.859685147 116.4822659 0.390423298 0                        

[SUBAREAS]
;;Subcatchment   N-Imperv   N-Perv     S-Imperv   S-Perv     PctZero    RouteTo    PctRouted 
;;-------------- ---------- ---------- ---------- ---------- ---------- ---------- ----------
1                0.018      0.45       2.5        12         25         OUTLET    
2                0.018      0.45       2.5        12         25         OUTLET    
3                0.018      0.45       2.5        12         25         OUTLET    
4                0.018      0.45       2.5        12         25         OUTLET    
5                0.018      0.45       2.5        12         25         OUTLET    
6                0.018      0.45       2.5        12         25         OUTLET    
7                0.018      0.45       2.5        12         25         OUTLET    
8                0.018      0.45       2.5        12         25         OUTLET    
9                0.018      0.45       2.5        12         25         OUTLET    
10               0.018      0.45       2.5        12         25         OUTLET    
11               0.018      0.45       2.5        12         25         OUTLET    
12               0.018      0.45       2.5        12         25         OUTLET    
13               0.018      0.45       2.5        12         25         OUTLET    
14               0.018      0.45       2.5        12         25         OUTLET    
15               0.018      0.45       2.5        12         25         OUTLET    
16               0.018      0.45       2.5        12         25         OUTLET    
17               0.018      0.45       2.5        12         25         OUTLET    
18               0.018      0.45       2.5        12         25         OUTLET    
19               0.018      0.45       2.5        12         25         OUTLET    
20               0.018      0.45       2.5        12         25         OUTLET    
21               0.018      0.45       2.5        12         25         OUTLET    
22               0.018      0.45       2.5        12         25         OUTLET    
23               0.018      0.45       2.5        12         25         OUTLET    
24               0.018      0.45       2.5        12         25         OUTLET    
25               0.018      0.45       2.5        12         25         OUTLET    
26               0.018      0.45       2.5        12         25         OUTLET    
27               0.018      0.45       2.5        12         25         OUTLET    
28               0.018      0.45       2.5        12         25         OUTLET    
29               0.018      0.45       2.5        12         25         OUTLET    
30               0.018      0.45       2.5        12         25         OUTLET    

[INFILTRATION]
;;Subcatchment   MaxRate    MinRate    Decay      DryTime    MaxInfil  
;;-------------- ---------- ---------- ---------- ---------- ----------
1                121.9      45.72      4          7          0         
2                121.9      45.72      4          7          0         
3                121.9      45.72      4          7          0         
4                121.9      45.72      4          7          0         
5                121.9      45.72      4          7          0         
6                121.9      45.72      4          7          0         
7                121.9      45.72      4          7          0         
8                121.9      45.72      4          7          0         
9                121.9      45.72      4          7          0         
10               121.9      45.72      4          7          0         
11               121.9      45.72      4          7          0         
12               121.9      45.72      4          7          0         
13               121.9      45.72      4          7          0         
14               121.9      45.72      4          7          0         
15               121.9      45.72      4          7          0         
16               121.9      45.72      4          7          0         
17               121.9      45.72      4          7          0         
18               121.9      45.72      4          7          0         
19               121.9      45.72      4          7          0         
20               121.9      45.72      4          7          0         
21               121.9      45.72      4          7          0         
22               121.9      45.72      4          7          0         
23               121.9      45.72      4          7          0         
24               121.9      45.72      4          7          0         
25               121.9      45.72      4          7          0         
26               121.9      45.72      4          7          0         
27               121.9      45.72      4          7          0         
28               121.9      45.72      4          7          0         
29               121.9      45.72      4          7          0         
30               121.9      45.72      4          7          0         

[JUNCTIONS]
;;Name           Elevation  MaxDepth   InitDepth  SurDepth   Aponded   
;;-------------- ---------- ---------- ---------- ---------- ----------
YM16             27.498     3.56       0          0          0         
YJ3              28.392     2.366      0          0          0         
YH27             27.454     2.725      0          0          0         
YH27-3           28.395     1.963      0          0          0         
YH27-2           28.475     2.035      0          0          0         
YH27-1           28.555     2.105      0          0          0         
YL1              28.218     2.572      0          0          0         
YL1-1            28.550     2.545      0          0          0         
YL1-2            28.550     2.239      0          0          0         
YL2              28.188     2.687      0          0          0         
YL3              28.154     2.714      0          0          0         
YL4              28.114     2.638      0          0          0         
YL6              27.371     3.286      0          0          0         
YL7              27.345     3.361      0          0          0         
YL8              27.313     3.512      0          0          0         
YL9              27.281     3.67       0          0          0         
YL10-1           27.972     3.546      0          0          0         
YL10             27.053     3.997      0          0          0         
YL10-2           28.076     2.973      0          0          0         
YL12             26.996     4.052      0          0          0         
YL11             27.020     4.092      0          0          0         
YL13             26.968     3.975      0          0          0         
B20-1            26.936     3.888      0          0          0         
YI2              28.091     3.827      0          0          0         
YX13             28.224     3.184      0          0          0         
YX12             28.252     2.62       0          0          0         
YX11             28.289     2.169      0          0          0         
YX10             28.327     2.126      0          0          0         
YX9              28.364     2.219      0          0          0         
YX8              28.402     2.315      0          0          0         
YX7              28.439     2.45       0          0          0         
YX6              28.477     2.731      0          0          0         
YX5              29.014     2.606      0          0          0         
YX4              29.076     2.76       0          0          0         
YX3              29.139     2.658      0          0          0         
YX2              29.201     2.481      0          0          0         
YX1              29.555     2.093      0          0          0         
YW10             28.286     3.628      0          0          0         
YW9              28.347     3.735      0          0          0         
YW8              29.650     2.609      0          0          0         
YW7              29.685     2.751      0          0          0         
YW6              30.014     2.614      0          0          0         
YW5              30.081     2.77       0          0          0         
YK1              32.056     2.358      0          0          0         
YK2              30.446     3.449      0          0          0         
YK3              29.699     3.856      0          0          0         
YK4              29.670     3.459      0          0          0         
YK5              28.752     3.836      0          0          0         
YK6              28.717     3.43       0          0          0         
YK7              28.682     3.271      0          0          0         
YK8              28.652     3.213      0          0          0         
YK3-1            30.334     3.341      0          0          0         
YK3-2            29.917     3.65       0          0          0         
YK8-2            28.834     3.033      0          0          0         
YK8-1            28.834     3.032      0          0          0         
YK9              28.605     3.113      0          0          0         
YK10             28.028     3.546      0          0          0         
YK11             27.996     3.457      0          0          0         
YK12             27.964     3.369      0          0          0         
YK13             27.932     3.28       0          0          0         
YK14             27.900     3.193      0          0          0         
YK14-2           28.634     2.459      0          0          0         
YK14-1           28.734     2.359      0          0          0         
YK15             27.860     3.083      0          0          0         
YK17             27.819     2.96       0          0          0         
YL5              27.387     3.329      0          0          0         
YN10-1           29.682     1.219      0          0          0         
YN10-2           28.822     1.957      0          0          0         
YN10-3           28.262     2.404      0          0          0         
YN10-4           27.882     2.623      0          0          0         
YN10-4-1         27.897     2.941      0          0          0         
YN10-5           27.834     2.551      0          0          0         
YN10-6           27.786     2.474      0          0          0         
YN10-7           27.236     2.865      0          0          0         
YN10-7-1         27.768     2.328      0          0          0         
YN10-8           27.188     2.745      0          0          0         
YN10-9           27.138     2.608      0          0          0         
YN10-10          26.550     3.027      0          0          0         
YN10-10-1        27.310     2.272      0          0          0         
YN10-11          26.511     2.903      0          0          0         
YN10-12          26.471     2.77       0          0          0         
YN10-13          26.431     2.635      0          0          0         
YN10             26.159     2.835      0          0          0         
YW4              30.147     2.925      0          0          0         
YW3              30.213     3.053      0          0          0         
YW2              30.897     2.274      0          0          0         
YW1              30.977     2.008      0          0          0         
YV13             29.329     3.587      0          0          0         
YV12             29.382     3.672      0          0          0         
YV11             29.418     3.791      0          0          0         
YV10             29.454     3.912      0          0          0         
YV9              29.490     4.023      0          0          0         
YV8              29.634     3.998      0          0          0         
YV7              29.678     3.86       0          0          0         
YV6              29.722     3.696      0          0          0         
YV5              29.766     3.52       0          0          0         
YV4              29.810     3.215      0          0          0         
YV4-1            29.891     3.14       0          0          0         
YV3              30.272     2.404      0          0          0         
YV3-1            30.303     2.012      0          0          0         
YV2              30.334     2.141      0          0          0         
YV1              30.396     1.905      0          0          0         
YV9-1            29.711     3.805      0          0          0         
YH8              29.300     2.839      0          0          0         
YH7              29.944     2.631      0          0          0         
YH6              29.988     3.027      0          0          0         
YH5              30.732     2.727      0          0          0         
YH4              31.412     2.446      0          0          0         
YH3              31.992     2.266      0          0          0         
YH2              32.572     2.088      0          0          0         
YH1              33.144     1.838      0          0          0         
YH9              29.257     2.491      0          0          0         
YH10             29.108     2.445      0          0          0         
YH10-1           29.243     2.312      0          0          0         
YH11             29.077     2.391      0          0          0         
YH12             29.050     2.341      0          0          0         
YH13             29.012     2.314      0          0          0         
YH14             28.975     2.441      0          0          0         
YH15             28.939     2.617      0          0          0         
YH16             28.087     3.558      0          0          0         
YH17             28.047     3.51       0          0          0         
YH18             28.006     3.411      0          0          0         
YH19             27.966     3.312      0          0          0         
YH20             27.926     3.216      0          0          0         
YH21             27.886     3.242      0          0          0         
YH22             27.645     3.213      0          0          0         
YH22-1           28.274     2.581      0          0          0         
YH23             27.606     3.111      0          0          0         
YH24             27.566     3.013      0          0          0         
YH25             27.516     2.878      0          0          0         
YH26             27.486     2.811      0          0          0         
YH28             27.426     2.66       0          0          0         
YH29             27.389     2.633      0          0          0         
YH30             27.355     2.732      0          0          0         
YH31             27.125     3.092      0          0          0         
YH31-1           27.362     3.415      0          0          0         
YH32             27.094     3.198      0          0          0         
YH33             27.062     3.163      0          0          0         
YH34             27.029     3.062      0          0          0         
YH35             26.997     3.195      0          0          0         
YH35-1           27.034     3.154      0          0          0         
YH36             26.965     3.836      0          0          0         
YH37             26.933     4.654      0          0          0         
YH38             26.911     5.203      0          0          0         
B30-1            26.879     5.955      0          0          0         
A35-1            26.784     4.954      0          0          0         
YI24             26.801     4.449      0          0          0         
YI23             26.821     3.759      0          0          0         
YI23-1           27.786     2.787      0          0          0         
YI22             26.838     3.375      0          0          0         
YI21             26.857     3.258      0          0          0         
YI20             26.878     3.338      0          0          0         
YI19             26.902     3.436      0          0          0         
YI18             26.926     3.529      0          0          0         
YI18-1           27.727     2.727      0          0          0         
YI17             27.158     3.415      0          0          0         
YI16             27.190     3.426      0          0          0         
YI15             27.210     3.349      0          0          0         
YJ14             27.687     2.964      0          0          0         
YI14             27.306     3.202      0          0          0         
YI14-1           28.475     2.256      0          0          0         
YI13             27.342     3.054      0          0          0         
YI12             27.382     2.932      0          0          0         
YI11             27.422     2.972      0          0          0         
YI10             27.462     3.052      0          0          0         
YI9              27.487     3.108      0          0          0         
YG12             27.508     3.154      0          0          0         
YI8              27.712     2.946      0          0          0         
YI7              27.747     3.019      0          0          0         
YI6              27.777     3.123      0          0          0         
YI5              27.801     3.297      0          0          0         
YI5-1            28.439     2.676      0          0          0         
YI4              28.039     3.548      0          0          0         
YI4-1            28.475     3.096      0          0          0         
YI3              28.066     3.805      0          0          0         
YN1              28.577     2.824      0          0          0         
YN2              28.487     2.405      0          0          0         
YN3              27.897     2.662      0          0          0         
YN4              26.917     3.368      0          0          0         
YN4-1            26.940     3.354      0          0          0         
YN5              26.877     3.14       0          0          0         
YN6              26.837     2.897      0          0          0         
YN7              26.494     3          0          0          0         
YN8              26.459     2.791      0          0          0         
YN9              26.425     2.564      0          0          0         
YN11             26.096     3.006      0          0          0         
YJ13             27.714     2.988      0          0          0         
YJ12             27.754     3.065      0          0          0         
YJ12-1           27.754     3.133      0          0          0         
YJ11             28.114     2.712      0          0          0         
YJ10             28.173     2.546      0          0          0         
YJ9              28.231     2.342      0          0          0         
YJ8              28.289     2.229      0          0          0         
YJ8-1            28.406     2.113      0          0          0         
YJ7              28.567     1.905      0          0          0         
YJ6              28.617     1.864      0          0          0         
YJ1              28.857     1.693      0          0          0         
YJ2              28.782     1.863      0          0          0         
YJ3-1            28.409     2.349      0          0          0         
YJ4              28.348     2.53       0          0          0         
YJ5              28.302     2.7        0          0          0         
YE1              29.972     1.798      0          0          0         
YE2              29.892     1.742      0          0          0         
YE3              29.312     2.299      0          0          0         
YE3-1            29.530     2.31       0          0          0         
YE3-2            29.530     2.328      0          0          0         
YE4              29.275     2.136      0          0          0         
YE5              29.235     2.335      0          0          0         
YE6              29.195     2.545      0          0          0         
YE7              29.155     2.753      0          0          0         
YE8              28.912     3.008      0          0          0         
YE8-1            29.324     2.596      0          0          0         
YE8-2            29.330     2.59       0          0          0         
YE9              28.872     2.919      0          0          0         
YF7-2            28.892     2.628      0          0          0         
YE10             28.832     2.839      0          0          0         
YE11             28.793     2.767      0          0          0         
YD12             28.394     3.219      0          0          0         
YF1              29.460     2.19       0          0          0         
YF2              29.390     2.369      0          0          0         
YF3              29.320     2.541      0          0          0         
YF4              28.850     3.06       0          0          0         
YF4-1            28.968     2.942      0          0          0         
YF4-2            28.968     3.24       0          0          0         
YF5              28.803     2.977      0          0          0         
YF6              28.757     2.9        0          0          0         
YF7              28.374     3.146      0          0          0         
YF7-1            28.892     2.628      0          0          0         
YF8              28.326     3.05       0          0          0         
YM10             27.894     3.375      0          0          0         
YG1              28.463     2.748      0          0          0         
YG2              28.393     2.705      0          0          0         
YG3              27.995     2.997      0          0          0         
YG3-1            28.215     2.682      0          0          0         
YG4              27.848     3.015      0          0          0         
YG4-1            28.168     2.585      0          0          0         
YG5              27.790     2.945      0          0          0         
YG6              27.744     3.106      0          0          0         
YG7              27.699     3.287      0          0          0         
YG8              27.653     3.447      0          0          0         
YG8-1            28.273     2.827      0          0          0         
YG8-2            28.273     2.827      0          0          0         
YG9              27.613     3.448      0          0          0         
YG10             27.570     3.328      0          0          0         
YG11             27.537     3.243      0          0          0         
A21-2            27.240     3.368      0          0          0         
A21-1            27.284     3.307      0          0          0         
YM21             27.327     3.371      0          0          0         
YM20             27.362     3.478      0          0          0         
YM20-1           27.799     3.226      0          0          0         
YM20-2           28.211     2.834      0          0          0         
YM19             27.400     3.54       0          0          0         
YM18             27.436     3.632      0          0          0         
YM17             27.472     3.596      0          0          0         
YM16-1           28.116     2.943      0          0          0         
YM15             27.731     3.23       0          0          0         
YM14             27.772     3.107      0          0          0         
YM13             27.791     3.109      0          0          0         
YM13-1           27.809     3.012      0          0          0         
YM13-2           28.222     2.745      0          0          0         
YM12             27.831     3.211      0          0          0         
YM11             27.871     3.326      0          0          0         
YM9              27.917     3.423      0          0          0         
YM8              27.957     3.529      0          0          0         
YM7              27.997     3.506      0          0          0         
YM6              28.037     3.723      0          0          0         
YM6-1            28.655     3.102      0          0          0         
YM6-2            28.968     2.792      0          0          0         
YM5              28.081     3.669      0          0          0         
YM4              28.125     3.505      0          0          0         
YM3              28.169     3.365      0          0          0         